data/RTE/case6515rte.m
function mpc = case6515rte
%CASE6515RTE
%   AC Power flow data for French system.
%   Please see CASEFORMAT for details on the case file format.
%
%   This case accurately represents the size and complexity of French
%   very high voltage and high voltage transmission network.
%   These data are snapshots of French VHV+HV grid in 2013.
%   These data can be used to validate mathematical methods and tools.
%   These data should NOT be used for operation
%   nor planning of the French or European grids.
%
%   When publishing results using this data, please cite:
%     C. Josz, S. Fliscounakis, J. Maeght, and P. Panciatici,
%     "AC Power Flow Data in MATPOWER and QCQP Format: iTesla, RTE Snapshots, and PEGASE"
%     http://arxiv.org/abs/1603.01533
%
%   Contacts (primary contact for this file : Jean Maeght):
%   Cédric Josz, Stéphane Fliscounakis, Jean Maeght, Patrick Panciatici
%   firstname.lastname@rte-france.com
%   Réseau de Transport d'Electricité (French Transmission System Operator)
%   Département Expertise Système, Immeuble "Le Colbert"
%   9 rue de la Porte de Buc, 78000 Versailles Cedex, France
%   March 4th, 2016

%% MATPOWER Case Format : Version 2
mpc.version = '2';

%%-----  Power Flow Data  -----%%
%% system MVA base
mpc.baseMVA = 100;

%% bus data
%	bus_i	type	Pd	Qd	Gs	Bs	area	Vm	Va	baseKV	zone	Vmax	Vmin
mpc.bus = [
	1	1	0	0	0	0	1	0.992673125	-12.8471377	45	1	1	0.888889;
	2	1	0	0	0	0	1	1.02546105	-9.79090947	63	1	1.06349	0.936508;
	3	1	14.8	3.8	0	0	1	1.00864353	-17.1895145	63	1	1.07937	0.952381;
	4	1	49.6	2.8	0	0	1	1.02422997	-30.343276	90	1	1.08889	0.933333;
	5	1	12.9	0.9	0	0	1	1.00903343	-61.8409771	63	1	1.06349	0.952381;
	6	1	13	5.3	0	0	1	1.03039688	-21.8739211	63	1	1.07937	0.920635;
	7	1	2.3	0.2	0	0	1	1.04823977	-23.3329536	63	1	1.07937	0.920635;
	8	1	15.8	-0.3	0	0	1	1.04175444	-22.659297	225	1	1.08889	0.888889;
	9	1	14.9	0	0	0	1	1.04155579	-20.2679216	63	1	1.06349	0.936508;
	10	1	0	0	0	0	1	1.0132689	-29.1463296	90	1	1.07778	0.922222;
	11	1	33.2	4.9	0	0	1	1.01326868	-29.1463272	90	1	1.07778	0.922222;
	12	1	0	0	0	0	1	1.01492907	-3.69736777	63	1	1.07937	0.952381;
	13	1	0	0	0	0	1	1.06112977	-5.52856096	380	1	1.10263	1.05271;
	14	1	63.2	13.3	0	30.4	1	1.05559114	-38.6865005	90	1	1.07778	0.977778;
	15	1	0	0	0	0	1	1.02066892	-25.2263375	63	1	1.07937	0.920635;
	16	1	13.9	1.9	0	0	1	1.03089962	-28.9019546	63	1	1.07937	0.920635;
	17	1	10.9	0.1	0	0	1	1.04190862	-35.5001147	90	1	1.06667	0.977778;
	18	1	0	0	0	0	1	0.938816943	-6.53938592	45	1	1	0.888889;
	19	1	1	0	0	0	1	1.01915832	-24.0844174	63	1	1.06349	0.936508;
	20	1	5.6	-18	0	0	1	0.939550393	-6.5786432	45	1	1	0.888889;
	21	1	7.6	-1.6	0	0	1	1.02352369	-23.3128349	90	1	1.06667	0.977778;
	22	1	18.5	1	0	0	1	1.00657527	-18.245777	63	1	1.07937	0.952381;
	23	1	22.4	2.2	0	0	1	1.01974649	-11.4972658	63	1	1.06349	0.936508;
	24	1	17	-1.5	0	0	1	1.02620358	-28.8977254	90	1	1.11111	0.955556;
	25	1	54.7	-1.1	0	0	1	1.06210876	-24.9347957	90	1	1.1	0.944444;
	26	1	15.1	10.6	0	0	1	1.01923142	-30.5619937	90	1	1.06667	0.977778;
	27	1	0	0	0	0	1	1.05630842	-25.6901089	225	1	1.08444	1.00444;
	28	1	0.9	-0.2	0	0	1	1.01919759	-24.3820624	63	1	1.07937	0.952381;
	29	1	76.5	9.4	0	0	1	0.992476874	-26.274171	63	1	1.06349	0.968254;
	30	1	39.9	3.5	0	0	1	1.01607663	-29.4588142	90	1	1.08889	0.933333;
	31	1	0	0	0	0	1	1.04325949	-10.3722447	63	1	1.06349	0.936508;
	32	1	0	0	0	0	1	1.0482513	-5.17611119	150	1	1.10667	0.9;
	33	1	0	0	0	0	1	1.05862347	-7.53647866	225	1	1.08889	0.933333;
	34	1	0	0	0	0	1	1.05568981	-6.87832327	225	1	1.08889	0.933333;
	35	1	0	0	0	0	1	1.07212104	-6.27267486	380	1	1.10526	1.03947;
	36	1	0	0	0	0	1	1.07555328	-5.29121134	380	1	1.10526	1.03947;
	37	1	-2.7	3	0	0	1	1.01345584	-27.1537318	63	1	1.07937	0.920635;
	38	1	5	-1	0	0	1	1.02829838	-25.8684243	63	1	1.09524	0.936508;
	39	1	43.6	-2.9	0	0	1	1.01570693	-46.2156561	90	1	1.07778	0.977778;
	40	1	38.1	4.1	0	0	1	1.04839394	-36.8261167	90	1	1.07778	0.977778;
	41	1	0	0	0	0	1	1.05970737	-31.1653571	225	1	1.08889	1.00444;
	42	1	0	0	0	0	1	1.12316346	0.171268459	63	1	1.13099	0.952381;
	43	1	3.2	2.7	0	0	1	1.03415253	-33.026203	90	1	1.07778	0.977778;
	44	1	13.3	0.1	0	0	1	1.02400777	-57.5229333	63	1	1.06349	0.952381;
	45	1	3.8	1.6	0	0	1	1.01408884	-40.0298803	90	1	1.06667	0.977778;
	46	1	0	0	0	0	1	1.02956066	-17.1027795	63	1	1.06349	0.936508;
	47	2	0	0	0	0	1	1.022	-13.006679	63	1	1.06349	0.936508;
	48	1	40.4	5.6	0	0	1	1.01540389	-30.4810602	90	1	1.07778	0.922222;
	49	1	9.8	-1.9	0	0	1	1.0241398	-18.4598697	63	1	1.06349	0.936508;
	50	1	0	0	0	0	1	1.06676716	-15.8911637	63	1	1.06927	0.936508;
	51	1	0	0	0	0	1	1.05441957	-10.919134	225	1	1.08889	0.933333;
	52	1	6.5	2.9	0	0	1	1.02819015	-42.0616957	90	1	1.06667	0.977778;
	53	1	0	-1.3	0	0	1	0.990894456	-33.1970632	63	1	1.04762	0.952381;
	54	1	0.3	-0.3	0	0	1	1.03197366	-22.2968493	90	1	1.06667	0.977778;
	55	1	50.9	12.3	0	0	1	1.06700842	-34.6141552	225	1	1.08889	1.00444;
	56	1	75.5	20.5	0	0	1	1.05516756	-29.8601461	225	1	1.08889	1.00444;
	57	2	0	0	0	0	1	1.058	-20.1693954	63	1	1.07937	0.920635;
	58	1	154	36.4	0	0	1	1.06686281	-34.6314288	225	1	1.08889	1.00444;
	59	1	5	1	0	0	1	1.02827769	-15.3855852	63	1	1.07937	0.952381;
	60	1	0	0	0	0	1	1.0337691	-9.9719196	63	1	1.07937	0.952381;
	61	1	46.3	11.9	0	0	1	1.03489853	-11.5603392	63	1	1.07937	0.952381;
	62	1	0	0	0	0	1	1.02055977	-9.93967295	63	1	1.07937	0.952381;
	63	1	16.8	2.9	0	0	1	1.0112534	-4.26584306	63	1	1.07937	0.952381;
	64	1	67.3	7.1	0	0	1	1.05467311	-22.3706653	225	1	1.08889	0.888889;
	65	1	12	2.8	0	0	1	1.04688113	-12.1924535	63	1	1.07937	0.952381;
	66	1	13	-6.4	0	0	1	1.02707223	-27.7656942	63	1	1.06349	0.936508;
	67	1	1	0	0	0	1	1.03945348	-23.5570146	63	1	1.07937	0.920635;
	68	1	53.1	1.1	0	0	1	1.01382383	-17.068817	63	1	1.06349	0.936508;
	69	1	20.8	1.3	0	0	1	1.04182792	-62.4588387	63	1	1.06349	0.952381;
	70	1	10.6	4.2	0	0	1	1.02517777	-2.58318588	63	1	1.07937	0.952381;
	71	1	69.4	17.5	0	0	1	1.00979621	-33.3578345	63	1	1.04762	0.952381;
	72	1	0	0	0	0	1	1.07727637	-26.6245331	225	1	1.08889	1.00444;
	73	1	0	0	0	0	1	1.07728775	-26.6238384	225	1	1.08889	1.00444;
	74	1	58.8	-5	0	0	1	1.05521642	-22.2096659	225	1	1.08889	0.888889;
	75	1	25.2	1.9	0	0	1	1.03831803	-25.8993445	90	1	1.06667	0.977778;
	76	1	5.9	-2.1	0	0	1	1.07673551	-0.737800075	225	1	1.08889	0.986667;
	77	1	43.7	0.4	0	0	1	1.01539346	-18.6809907	63	1	1.06349	0.936508;
	78	1	0	0	0	0	1	1.03810449	-26.0425496	63	1	1.07937	0.920635;
	79	1	0	0	0	0	1	1.00480897	-32.1704872	63	1	1.04762	0.952381;
	80	1	32.4	10.5	0	0	1	1.03513924	-31.7118517	225	1	1.08889	1.00444;
	81	1	32.4	9.1	0	0	1	1.03515795	-31.7118034	225	1	1.08889	1.00444;
	82	1	11.3	0.3	0	0	1	1.02513848	-19.7466558	63	1	1.06349	0.936508;
	83	1	79	24.8	0	0	1	1.04529914	-32.2878169	225	1	1.08889	1.00444;
	84	1	-0.1	0.4	0	0	1	1.01622729	-14.3105965	63	1	1.06349	0.936508;
	85	1	0.7	-1.5	0	0	1	1.04080844	-18.1005924	63	1	1.06349	0.936508;
	86	1	48.8	5.2	0	0	1	1.01614449	-49.9270109	90	1	1.06667	0.977778;
	87	1	0	0	0	0	1	1.02330517	-4.28707361	63	1	1.07937	0.952381;
	88	1	14.8	-1.2	0	0	1	1.03614098	-22.0451103	63	1	1.06349	0.936508;
	89	1	26.2	0.3	0	0	1	1.02844336	-35.7613286	90	1	1.07778	0.977778;
	90	1	0.2	-2.3	0	0	1	0.942964456	-7.25414887	45	1	1	0.888889;
	91	1	0	0	0	0	1	0.938816943	-6.53938592	45	1	1	0.888889;
	92	1	31.8	1.1	0	0	1	1.00914587	-21.2607832	63	1	1.06349	0.968254;
	93	1	2	-2.8	0	0	1	0.954341202	-8.94487733	45	1	1	0.888889;
	94	1	18.2	-4	0	0	1	1.0348292	-29.3342649	90	1	1.06667	0.977778;
	95	1	57.2	9.4	0	0	1	1.02330918	-41.8968451	90	1	1.06667	0.977778;
	96	1	0.9	-0.2	0	0	1	1.05013888	-10.4724751	63	1	1.06349	0.936508;
	97	1	57.7	3.8	0	0	1	1.0637675	-23.1503147	63	1	1.07937	0.920635;
	98	1	9.5	1	0	0	1	1.01837903	-23.6016005	63	1	1.07937	0.952381;
	99	1	35.8	5.9	0	0	1	1.04200009	-11.2421339	63	1	1.07937	0.952381;
	100	1	63	7.8	0	0	1	1.0198988	-16.7237189	63	1	1.06349	0.936508;
	101	1	17.3	-0.8	0	0	1	1.00720077	-15.4022054	63	1	1.06349	0.936508;
	102	2	0	0	0	0	1	1.033	-17.5428369	63	1	1.07937	0.952381;
	103	1	12.6	-1.2	0	0	1	1.03402232	-10.2412822	63	1	1.07937	0.952381;
	104	1	0	0	0	0	1	1.06896149	-7.24533817	225	1	1.08889	0.986667;
	105	1	36.9	2.2	0	0	1	1.03585863	-20.6678397	225	1	1.08889	0.888889;
	106	1	58.2	10.7	0	0	1	1.04519922	-25.684212	90	1	1.1	0.944444;
	107	1	107	14.3	0	0	1	1.040509	-31.5107115	225	1	1.08444	1.00889;
	108	1	12.2	-2.4	0	0	1	1.04638166	-31.1343278	90	1	1.07778	0.977778;
	109	1	67.8	8.7	0	0	1	1.03905102	-13.9671499	63	1	1.06349	0.936508;
	110	1	0	0	0	0	1	1.02643332	-9.99598604	225	1	1.08889	0.933333;
	111	1	38.7	-7.5	0	0	1	0.999939733	-23.8557541	63	1	1.06349	0.968254;
	112	1	0	0	0	0	1	1.0084672	-32.7244461	63	1	1.04762	0.952381;
	113	1	0	0	0	0	1	1.04193595	-29.0769585	225	1	1.08889	1.00444;
	114	1	13.4	1.1	0	0	1	1.05164361	-14.0192231	63	1	1.06349	0.936508;
	115	1	0	0	0	0	1	1.06113897	-5.52864435	380	1	1.10526	1.05263;
	116	1	0	0	0	0	1	1.06113897	-5.52864435	380	1	1.10526	1.05263;
	117	1	14.9	0.2	0	0	1	1.0148958	-22.0594793	63	1	1.07937	0.952381;
	118	1	2	0.7	0	0	1	1.0407153	-25.5846169	90	1	1.06667	0.977778;
	119	1	40.6	6.9	0	0	1	1.00751513	-12.2929818	63	1	1.06349	0.936508;
	120	1	22	-2.3	0	0	1	1.02701829	-10.6746379	63	1	1.06349	0.936508;
	121	1	20.8	1.4	0	0	1	1.01905698	-28.4357141	63	1	1.07937	0.920635;
	122	2	0	0	0	0	1	1.026	-11.4893332	63	1	1.07937	0.952381;
	123	1	12	4.6	0	0	1	1.02345495	-11.6208216	63	1	1.07937	0.952381;
	124	1	8	-0.4	0	0	1	1.03058281	-32.0456097	90	1	1.06667	0.977778;
	125	1	11.1	0.4	0	0	1	1.02451482	-17.6128119	63	1	1.07937	0.952381;
	126	1	0.2	0.8	0	0	1	1.04200581	-18.1711791	63	1	1.06349	0.936508;
	127	1	14.7	2.7	0	0	1	1.00893682	-34.7845994	63	1	1.04762	0.952381;
	128	1	13.8	7.2	0	0	1	1.02420693	-13.4505926	63	1	1.06349	0.968254;
	129	1	19.1	10.8	0	0	1	1.02228026	-11.684565	63	1	1.06349	0.968254;
	130	1	0	0	0	0	1	1.04938638	-10.7559484	225	1	1.08444	1.00889;
	131	1	119.3	12	0	0	1	1.04797649	-19.2970195	225	1	1.08444	1.00889;
	132	2	9.4	0	0	0	1	1.061	-17.4067202	90	1	1.07778	0.922222;
	133	1	2.7	0.4	0	0	1	0.977015678	-35.7038784	63	1	1.04762	0.952381;
	134	1	101.1	27.4	0	0	1	1.01919465	-32.3675851	225	1	1.08889	1.00444;
	135	1	0	0	0	0	1	1.06787852	-34.4372217	225	1	1.08889	1.00444;
	136	1	23.9	1.4	0	0	1	1.02860167	-45.1625315	90	1	1.07778	0.977778;
	137	2	8.7	-3	0	0	1	1.021	-13.7741519	63	1	1.06349	0.968254;
	138	1	0	0	0	0	1	1.05230738	-11.8528375	150	1	1.08	0.966667;
	139	1	8	7.1	0	0	1	1.04648958	-14.9227418	63	1	1.07937	0.920635;
	140	1	0	0	0	80	1	1.07646104	-11.6950122	225	1	1.08889	1;
	141	1	0	0	0	0	1	1.08763346	-8.32866303	380	1	1.10526	1.05263;
	142	1	22.4	7.4	0	0	1	1.03228893	-14.8981507	63	1	1.07937	0.952381;
	143	1	0	0	0	0	1	1.06313802	-9.96969754	225	1	1.08889	0.986667;
	144	1	16	5	0	0	1	1.03309181	-26.8698953	90	1	1.11111	0.955556;
	145	1	23.4	9	0	0	1	1.05635444	-22.0953535	225	1	1.08889	0.968889;
	146	1	0	0	0	0	1	1.07128281	-18.8795632	380	1	1.10526	1;
	147	1	30	5.5	0	0	1	1.04390759	-16.0736886	63	1	1.06349	0.936508;
	148	1	6.6	1.2	0	0	1	1.03749817	-13.2119304	63	1	1.06349	0.936508;
	149	1	16.9	4.1	0	0	1	1.03408373	-41.2236007	90	1	1.06667	0.977778;
	150	1	48.5	3.2	0	0	1	1.04112536	-10.8602978	63	1	1.06349	0.936508;
	151	1	0	0	0	0	1	0.98098642	-26.9365676	63	1	1.06349	0.968254;
	152	1	45.3	12	0	7.7	1	0.980839029	-25.6821086	63	1	1.06349	0.968254;
	153	1	27.3	-5.5	0	0	1	1.04181234	-13.2314985	63	1	1.06349	0.936508;
	154	1	0	0	0	0	1	1.06674466	-9.80672971	225	1	1.08889	0.933333;
	155	2	0	0	0	0	1	1.03406286	-20.2221707	63	1	1.07937	0.920635;
	156	1	0	0	0	0	1	0.980935792	-26.9415225	63	1	1.06349	0.968254;
	157	1	0	-2.2	0	0	1	0.935542823	-10.5371068	45	1	1	0.888889;
	158	2	0	0	0	0	1	0.959	-8.8219929	45	1	1	0.888889;
	159	1	0	0	0	0	1	1.03725797	-13.4653506	63	1	1.06349	0.936508;
	160	1	41.7	5.9	0	0	1	1.04467103	-19.1138119	225	1	1.08889	0.888889;
	161	1	43.7	10	0	0	1	1.04448642	-19.1176995	225	1	1.08889	0.888889;
	162	1	-0.3	-1.6	0	0	1	1.01339884	-30.3158034	90	1	1.06667	0.977778;
	163	1	0	0	0	0	1	1.02801672	-10.7250105	63	1	1.07937	0.952381;
	164	1	0	0	0	0	1	1.02801672	-10.7250105	63	1	1.07937	0.952381;
	165	1	16.5	14.6	0	0	1	1.05983201	-36.314939	20	1	1.15	0.8;
	166	1	13.3	3.2	0	0	1	1.03524133	-40.7823374	90	1	1.06667	0.977778;
	167	1	17.8	-0.8	0	0	1	1.02999342	-41.2456122	90	1	1.06667	0.977778;
	168	1	0	0	0	0	1	1.05995948	-36.3084919	225	1	1.08444	1.00444;
	169	1	9.9	-0.9	0	0	1	1.01990731	-34.6512734	90	1	1.06667	0.977778;
	170	1	79.8	13.5	0	0	1	1.02344208	-35.0733645	90	1	1.07778	0.977778;
	171	1	28	0.8	0	30	1	1.04082815	-39.1279989	90	1	1.07778	0.977778;
	172	1	0	0	0	0	1	1.04692773	-34.5246347	225	1	1.08889	1.00444;
	173	1	28.5	8	0	0	1	1.0590281	-23.829887	90	1	1.08889	0.933333;
	174	1	59.7	11.6	0	0	1	1.05612022	-26.5540592	90	1	1.11111	0.955556;
	175	1	0	0	0	0	1	1.03904928	-18.731462	63	1	1.07937	0.920635;
	176	2	0	0	0	0	1	1.0990839	-16.9543598	150	1	1.1	0.9;
	177	1	0	0	0	0	1	1.06242189	-31.0018642	225	1	1.08889	1.00444;
	178	1	0	0	0	0	1	1.06242211	-31.0018654	225	1	1.08889	1.00444;
	179	1	0	0	0	0	1	1.00913769	-34.7703996	63	1	1.04762	0.952381;
	180	1	0	0	0	0	1	1.06242061	-31.0018573	225	1	1.08889	1.00444;
	181	1	12.7	-5.3	0	0	1	1.05536442	-25.4715017	63	1	1.07937	0.920635;
	182	1	16	3.1	0	0	1	1.03881229	-11.07428	63	1	1.06349	0.936508;
	183	1	5.5	-1.7	0	0	1	1.02470235	-22.7861282	63	1	1.07937	0.952381;
	184	1	5	1.4	0	0	1	1.06245644	-33.1058103	90	1	1.07778	0.977778;
	185	1	30.6	2.7	0	0	1	1.02299848	-15.8326102	63	1	1.07937	0.952381;
	186	1	1.2	0.2	0	0	1	1.02336193	-28.6617357	90	1	1.06667	0.977778;
	187	2	0	0	0	0	1	1.05073012	-20.5024991	63	1	1.07937	0.920635;
	188	1	0	0	0	0	1	1.09874151	-19.0660354	63	1	1.09875	0.920635;
	189	1	16.8	1.8	0	0	1	1.0371871	-24.0139136	63	1	1.07937	0.920635;
	190	2	0	0	0	0	1	0.952733602	-8.26372461	45	1	1	0.888889;
	191	1	15.4	-1.1	0	0	1	1.02020663	-34.5833907	90	1	1.06667	0.977778;
	192	1	9.9	-0	0	0	1	1.05772429	-20.6421751	63	1	1.07937	0.920635;
	193	1	0.1	0.7	0	0	1	1.04211754	-29.6167516	225	1	1.08889	1.00444;
	194	2	0.7	-1.6	0	0	1	1.056	-24.8084248	63	1	1.07937	0.920635;
	195	1	0	0	0	0	1	1.0450331	-32.4605615	63	1	1.06362	0.952381;
	196	1	0	0	0	0	1	1.04503452	-32.460604	63	1	1.06362	0.952381;
	197	1	27.5	-0.6	0	15	1	1.0141897	-32.2451924	63	1	1.07937	0.920635;
	198	1	11.1	-0.8	0	0	1	1.02001475	-23.0392125	63	1	1.07937	0.920635;
	199	1	12.6	2.7	0	0	1	1.01797065	-48.3616102	90	1	1.06667	0.977778;
	200	1	0	0	0	0	1	1.08350695	-23.092176	225	1	1.08889	1;
...
];

%% generator data
%	bus	Pg	Qg	Qmax	Qmin	Vg	mBase	status	Pmax	Pmin	Pc1	Pc2	Qc1min	Qc1max	Qc2min	Qc2max	ramp_agc	ramp_10	ramp_30	ramp_q	apf
mpc.gen = [
	4	0	0	0	0	1.025	100	0	12	0	0	0	0	0	0	0	0	0	0	0	0;
	4	0	0	0	0	1.025	100	0	10	0	0	0	0	0	0	0	0	0	0	0	0;
	5	0	0	0	0	1.016	100	0	9.1	0	0	0	0	0	0	0	0	0	0	0	0;
	11	0.05	0	0	0	1.014	100	1	28	0	0	0	0	0	0	0	0	0	0	0	0;
	11	0	0	0	0	1.014	100	0	18	0	0	0	0	0	0	0	0	0	0	0	0;
	17	0	0	0	0	1.045	100	0	8.2	0	0	0	0	0	0	0	0	0	0	0	0;
	19	0	0	0	0	1.02	100	0	1.2	0	0	0	0	0	0	0	0	0	0	0	0;
	22	0	0	0	0	1.007	100	0	10	0	0	0	0	0	0	0	0	0	0	0	0;
	24	0	0	0	0	1.027	100	0	16.1	0	0	0	0	0	0	0	0	0	0	0	0;
	24	0	0	0	0	1.027	100	0	35.5	0	0	0	0	0	0	0	0	0	0	0	0;
	25	0.22	0	0	0	1.064	100	1	36	0	0	0	0	0	0	0	0	0	0	0	0;
	25	0	0	0	0	1.064	100	0	27.2	0	0	0	0	0	0	0	0	0	0	0	0;
	40	0	0	0	0	1.054	100	0	8	0	0	0	0	0	0	0	0	0	0	0	0;
	47	8.56	-10	9.5	-10	1.022	100	1	16	0	0	0	0	0	0	0	0	0	0	0	0;
	47	8.56	-10	9.5	-10	1.022	100	1	16	0	0	0	0	0	0	0	0	0	0	0	0;
	48	0	0	0	0	1.017	100	0	23	0	0	0	0	0	0	0	0	0	0	0	0;
	48	0	0	0	0	1.017	100	0	24	0	0	0	0	0	0	0	0	0	0	0	0;
	57	4.74	1	1	0.9	1.058	100	1	13	0	0	0	0	0	0	0	0	0	0	0	0;
	64	0	0	0	0	1.056	100	0	24	0	0	0	0	0	0	0	0	0	0	0	0;
	64	0	0	0	0	1.056	100	0	27.6	0	0	0	0	0	0	0	0	0	0	0	0;
	69	0	0	0	0	1.045	100	0	30.04	0	0	0	0	0	0	0	0	0	0	0	0;
	70	0	0	0	0	1.026	100	0	23	0	0	0	0	0	0	0	0	0	0	0	0;
	85	0	0	0	0	1.042	100	0	6.68	0	0	0	0	0	0	0	0	0	0	0	0;
	86	0	0	0	0	1.019	100	0	9.2	0	0	0	0	0	0	0	0	0	0	0	0;
	102	17.16	-7.63	21	-9	1.033	100	1	46	0	0	0	0	0	0	0	0	0	0	0	0;
	122	6.17	2.04	5	-2	1.026	100	1	12	0	0	0	0	0	0	0	0	0	0	0	0;
	124	0	0	0	0	1.032	100	0	9	0	0	0	0	0	0	0	0	0	0	0	0;
	125	5.16	0	0	0	1.026	100	1	26	0	0	0	0	0	0	0	0	0	0	0	0;
	125	1.16	0	0	0	1.026	100	1	12	0	0	0	0	0	0	0	0	0	0	0	0;
	132	12.3	0.8	3	-3	1.061	100	1	17	0	0	0	0	0	0	0	0	0	0	0	0;
	132	0	0.8	1	-1	1.061	100	0	4	0	0	0	0	0	0	0	0	0	0	0	0;
	132	0	0.8	3	-3	1.061	100	0	14	0	0	0	0	0	0	0	0	0	0	0	0;
	132	0	0.8	3	-3	1.061	100	0	14	0	0	0	0	0	0	0	0	0	0	0	0;
	137	0	-0.2	0.8	-0.8	1.021	100	0	18	0	0	0	0	0	0	0	0	0	0	0	0;
	137	7.21	-0.8	0.8	-0.8	1.021	100	1	18	0	0	0	0	0	0	0	0	0	0	0	0;
	155	0	0.47	1.76	-1.76	1.035	100	0	5.3	0	0	0	0	0	0	0	0	0	0	0	0;
	158	8.29	2.26	10	-13	0.959	100	1	17.9	0	0	0	0	0	0	0	0	0	0	0	0;
	158	8.29	2.26	10	-13	0.959	100	1	17.9	0	0	0	0	0	0	0	0	0	0	0	0;
	176	0	0.78	10	-4	1.1	100	0	30	0	0	0	0	0	0	0	0	0	0	0	0;
	187	0	1.92	8	-8	1.075	100	0	11	0	0	0	0	0	0	0	0	0	0	0	0;
	187	0	1.91	2	-2	1.075	100	0	11	0	0	0	0	0	0	0	0	0	0	0	0;
	190	0	-0.37	14	-14	0.951	100	0	30	0	0	0	0	0	0	0	0	0	0	0	0;
	192	9.17	0	0	0	1.058	100	1	23.5	0	0	0	0	0	0	0	0	0	0	0	0;
	194	0.42	1	1	0.9	1.056	100	1	15	0	0	0	0	0	0	0	0	0	0	0	0;
	194	0.42	1	1	0.9	1.056	100	1	15	0	0	0	0	0	0	0	0	0	0	0	0;
	217	0	0	0	0	1.009	100	0	11.94	0	0	0	0	0	0	0	0	0	0	0	0;
	224	0	0.79	2	0	1.099	100	0	6	0	0	0	0	0	0	0	0	0	0	0	0;
	227	0	0	0	0	1.012	100	0	7.5	0	0	0	0	0	0	0	0	0	0	0	0;
	236	0	0	0	0	1.033	100	0	33.5	0	0	0	0	0	0	0	0	0	0	0	0;
	236	0	0	0	0	1.033	100	0	24.3	0	0	0	0	0	0	0	0	0	0	0	0;
	238	0	0	0	0	1.033	100	0	8	0	0	0	0	0	0	0	0	0	0	0	0;
	238	1.01	0	0	0	1.033	100	1	36	0	0	0	0	0	0	0	0	0	0	0	0;
	246	0	0	2	0	1.02	100	0	1	0	0	0	0	0	0	0	0	0	0	0	0;
	246	0	-0.31	10	-10	1.02	100	0	31	0	0	0	0	0	0	0	0	0	0	0	0;
	246	0	-0.31	10	-10	1.02	100	0	31	0	0	0	0	0	0	0	0	0	0	0	0;
	246	0	-0.31	10	-10	1.02	100	0	31	0	0	0	0	0	0	0	0	0	0	0	0;
	256	7.15	-5.7	10	-10	1.047	100	1	26	0	0	0	0	0	0	0	0	0	0	0	0;
	256	12.15	-5.7	10	-10	1.047	100	1	26	0	0	0	0	0	0	0	0	0	0	0	0;
	258	25.37	0.9	1	0.9	1.078	100	1	30	0	0	0	0	0	0	0	0	0	0	0	0;
	261	0	1.78	4	-4	1.049	100	0	8	0	0	0	0	0	0	0	0	0	0	0	0;
	269	0	0	0	0	1.006	100	0	12.6	0	0	0	0	0	0	0	0	0	0	0	0;
	282	0	-0.32	6.1	-6.2	1.02	100	0	11.6	0	0	0	0	0	0	0	0	0	0	0	0;
	295	0	0	0	0	1.044	100	0	25.3	0	0	0	0	0	0	0	0	0	0	0	0;
	296	3.05	0	0	0	1.008	100	1	12	0	0	0	0	0	0	0	0	0	0	0	0;
	305	0	-6.56	9	-9	1.042	100	0	15	0	0	0	0	0	0	0	0	0	0	0	0;
	312	4.2	0	0	0	1.011	100	1	25.8	0	0	0	0	0	0	0	0	0	0	0	0;
	312	15.2	0	0	0	1.011	100	1	49.6	0	0	0	0	0	0	0	0	0	0	0	0;
	317	0	0	0	0	1.058	100	0	0	-7	0	0	0	0	0	0	0	0	0	0	0;
	317	0	0	0	0	1.058	100	0	0	-7	0	0	0	0	0	0	0	0	0	0	0;
	319	0	0.1	0.1	-0.1	1.038	100	0	10.8	0	0	0	0	0	0	0	0	0	0	0	0;
	325	0	-0.29	4	-4	1.03	100	0	11	0	0	0	0	0	0	0	0	0	0	0	0;
	332	0	1.22	13	-9	1.038	100	0	25	0	0	0	0	0	0	0	0	0	0	0	0;
	333	0	4.72	13	-9	1.048	100	0	25	0	0	0	0	0	0	0	0	0	0	0	0;
	336	6.4	0.12	5	-6	1.023	100	1	13	0	0	0	0	0	0	0	0	0	0	0	0;
	338	0	1.74	10	-10	1.076	100	0	21	0	0	0	0	0	0	0	0	0	0	0	0;
	338	0	0.1	0.1	-0.1	1.076	100	0	2	0	0	0	0	0	0	0	0	0	0	0	0;
	345	0	0	0	0	1.027	100	0	2.3	0	0	0	0	0	0	0	0	0	0	0	0;
	345	0	0	0	0	1.027	100	0	19.5	0	0	0	0	0	0	0	0	0	0	0	0;
	348	0	0	0	0	1.047	100	0	22	0	0	0	0	0	0	0	0	0	0	0	0;
	357	0	0	0	0	0.996	100	0	12	0	0	0	0	0	0	0	0	0	0	0	0;
	357	0	0	0	0	0.996	100	0	12	0	0	0	0	0	0	0	0	0	0	0	0;
	364	125.15	17.47	59	-26	1.035	100	1	130	0	0	0	0	0	0	0	0	0	0	0	0;
	391	0	0	0	0	1.03	100	0	2.7	0	0	0	0	0	0	0	0	0	0	0	0;
	409	0	1.09	5	-5	1.034	100	0	18	0	0	0	0	0	0	0	0	0	0	0	0;
	411	0	0	0	0	1.027	100	0	10	0	0	0	0	0	0	0	0	0	0	0	0;
	411	0	0	0	0	1.027	100	0	11.5	0	0	0	0	0	0	0	0	0	0	0	0;
	431	0	0	0	0	1.049	100	0	12	0	0	0	0	0	0	0	0	0	0	0	0;
	440	0	1.25	10.96	-11.99	1.023	100	0	34.25	0	0	0	0	0	0	0	0	0	0	0	0;
	447	18.4	0.79	8	-9	0.997	100	1	25	0	0	0	0	0	0	0	0	0	0	0	0;
	462	0	0	0	0	1.046	100	0	2.4	0	0	0	0	0	0	0	0	0	0	0	0;
	462	0	0	0	0	1.046	100	0	16	0	0	0	0	0	0	0	0	0	0	0	0;
	464	3.68	2.64	6	-3	1.176	100	1	27	1	0	0	0	0	0	0	0	0	0	0	0;
	464	3.68	2.64	6	-3	1.176	100	1	27	1	0	0	0	0	0	0	0	0	0	0	0;
	466	0	0	19	-10	1.035	100	0	48	1	0	0	0	0	0	0	0	0	0	0	0;
	470	0	-0.68	6	-6	1.045	100	0	10	0	0	0	0	0	0	0	0	0	0	0	0;
	470	0	-2.11	5.4	-5.4	1.045	100	0	9	0	0	0	0	0	0	0	0	0	0	0	0;
	479	0	-0.24	17	-16	1.022	100	0	27	0	0	0	0	0	0	0	0	0	0	0	0;
	479	0	-0.24	17	-16	1.022	100	0	27	0	0	0	0	0	0	0	0	0	0	0	0;
	479	0	-0.24	17	-16	1.022	100	0	27	0	0	0	0	0	0	0	0	0	0	0	0;
	491	0	-2	8	-17	1.054	100	0	23.4	0	0	0	0	0	0	0	0	0	0	0	0;
	508	0	1.77	2	-2	1.027	100	0	4	0	0	0	0	0	0	0	0	0	0	0	0;
	519	0	0	0	0	0.999	100	0	10	0	0	0	0	0	0	0	0	0	0	0	0;
	520	0	0	0	0	1.025	100	0	12	0	0	0	0	0	0	0	0	0	0	0	0;
	530	1.92	-0.04	4.8	-4.8	1.039	100	1	8	0	0	0	0	0	0	0	0	0	0	0	0;
	530	1.92	-0.04	4.8	-4.8	1.039	100	1	8	0	0	0	0	0	0	0	0	0	0	0	0;
	530	1.92	-0.04	4.8	-4.8	1.039	100	1	8	0	0	0	0	0	0	0	0	0	0	0	0;
	537	0	0	0	0	1.028	100	0	12	0	0	0	0	0	0	0	0	0	0	0	0;
	537	1.93	0	0	0	1.028	100	1	24	0	0	0	0	0	0	0	0	0	0	0	0;
	546	0	2	2	1.9	1.025	100	1	9	0	0	0	0	0	0	0	0	0	0	0	0;
	548	0	1.04	2	0	1.04	100	0	12	0	0	0	0	0	0	0	0	0	0	0	0;
	570	0	0	0	0	0.997	100	0	12	0	0	0	0	0	0	0	0	0	0	0	0;
	570	0	0	0	0	0.997	100	0	30	0	0	0	0	0	0	0	0	0	0	0	0;
	570	0	0	0	0	0.997	100	0	11.5	0	0	0	0	0	0	0	0	0	0	0	0;
	583	2.96	5.22	7	-4	1.009	100	1	16	0	0	0	0	0	0	0	0	0	0	0	0;
	585	0	0	0	0	0.986	100	0	9	0	0	0	0	0	0	0	0	0	0	0	0;
	586	0	4.82	5.7	-5.7	1.025	100	0	9.5	0	0	0	0	0	0	0	0	0	0	0	0;
	589	0	0.1	0.1	-0.1	1.018	100	0	1	0	0	0	0	0	0	0	0	0	0	0	0;
	593	0	1.09	10	-10	1.03	100	0	21	0	0	0	0	0	0	0	0	0	0	0	0;
	600	0	0.79	1	-1	1.03	100	0	6.1	0	0	0	0	0	0	0	0	0	0	0	0;
	610	39.05	-6.42	45	-45	1.021	100	1	45	0	0	0	0	0	0	0	0	0	0	0	0;
	610	0	-0.45	45	-45	1.021	100	0	45	0	0	0	0	0	0	0	0	0	0	0	0;
	612	0	0	0	0	1	100	0	12	0	0	0	0	0	0	0	0	0	0	0	0;
	612	0	0	0	0	1	100	0	12	0	0	0	0	0	0	0	0	0	0	0	0;
	612	0	0	0	0	1	100	0	12	0	0	0	0	0	0	0	0	0	0	0	0;
	613	0	0	0	0	0.994	100	0	35	0	0	0	0	0	0	0	0	0	0	0	0;
	613	0	0	0	0	0.994	100	0	11.5	0	0	0	0	0	0	0	0	0	0	0	0;
	624	-4.11	-8.3	8.3	-8.3	1.047	100	1	8.3	-8.3	0	0	0	0	0	0	0	0	0	0	0;
	633	0	-2.55	4	-4	1.028	100	0	7.3	0	0	0	0	0	0	0	0	0	0	0	0;
	636	0	0.25	7	0	0.999	100	0	15	0	0	0	0	0	0	0	0	0	0	0	0;
	636	1	4.25	7	0	0.999	100	1	15	0	0	0	0	0	0	0	0	0	0	0	0;
	646	197.89	5.02	80	-75	1.104	100	1	239	0	0	0	0	0	0	0	0	0	0	0	0;
	657	0	0.51	7	0	1.065	100	0	7	0	0	0	0	0	0	0	0	0	0	0	0;
	675	0	0	0	0	1.026	100	0	12	0	0	0	0	0	0	0	0	0	0	0	0;
	675	0.14	0	0	0	1.026	100	1	12	0	0	0	0	0	0	0	0	0	0	0	0;
	676	0	0	0	0	1.025	100	0	7.5	0	0	0	0	0	0	0	0	0	0	0	0;
	676	0	0	0	0	1.025	100	0	24	0	0	0	0	0	0	0	0	0	0	0	0;
	684	0	0	0	0	0.996	100	0	6.6	0	0	0	0	0	0	0	0	0	0	0	0;
	685	0	0	0	0	1.05	100	0	12	0	0	0	0	0	0	0	0	0	0	0	0;
	689	2.31	1.22	6	-5	0.966	100	1	9	0	0	0	0	0	0	0	0	0	0	0	0;
	689	2.31	1.22	6	-5	0.966	100	1	9	0	0	0	0	0	0	0	0	0	0	0	0;
	689	0	1.22	8	-5	0.966	100	0	11	0	0	0	0	0	0	0	0	0	0	0	0;
	689	2.31	1.22	8	-5	0.966	100	1	11	0	0	0	0	0	0	0	0	0	0	0	0;
	700	0	0	0	0	1.033	100	0	32.35	0	0	0	0	0	0	0	0	0	0	0	0;
	700	0	0	0	0	1.033	100	0	12	0	0	0	0	0	0	0	0	0	0	0	0;
	700	0	0	0	0	1.033	100	0	21	0	0	0	0	0	0	0	0	0	0	0	0;
	704	29.21	-6.36	15	-17	1.015	100	1	37	0	0	0	0	0	0	0	0	0	0	0	0;
	704	27.22	-6.36	15	-17	1.015	100	1	37	0	0	0	0	0	0	0	0	0	0	0	0;
	703	26.46	-6.56	15	-15	1.014	100	1	37	0	0	0	0	0	0	0	0	0	0	0	0;
	703	28.46	-6.56	15	-15	1.014	100	1	37	0	0	0	0	0	0	0	0	0	0	0	0;
	702	28.46	-7.06	15	-17	1.014	100	1	37	0	0	0	0	0	0	0	0	0	0	0	0;
	702	28.46	-7.06	15	-17	1.014	100	1	37	0	0	0	0	0	0	0	0	0	0	0	0;
	710	0	2	2	-2	0.963	100	0	4	0	0	0	0	0	0	0	0	0	0	0	0;
	710	0	2.16	2.5	-2.5	0.963	100	0	4	0	0	0	0	0	0	0	0	0	0	0	0;
	710	1	2.16	3	-3	0.963	100	1	5.7	0	0	0	0	0	0	0	0	0	0	0	0;
	710	0	0.5	6	-5	0.963	100	0	8.5	0	0	0	0	0	0	0	0	0	0	0	0;
	737	0	0	0	0	1.021	100	0	19.5	0	0	0	0	0	0	0	0	0	0	0	0;
	738	26.22	-3.12	18	-18	0.995	100	1	39	0	0	0	0	0	0	0	0	0	0	0	0;
	739	0.21	0	0	0	0.995	100	1	11.5	0	0	0	0	0	0	0	0	0	0	0	0;
	739	9.21	0	0	0	0.995	100	1	32	0	0	0	0	0	0	0	0	0	0	0	0;
	741	0	0	0	0	1.029	100	0	12	0	0	0	0	0	0	0	0	0	0	0	0;
	741	0	0	0	0	1.029	100	0	32	0	0	0	0	0	0	0	0	0	0	0	0;
	742	0	0.1	0.1	-0.1	1.034	100	0	5	0	0	0	0	0	0	0	0	0	0	0	0;
	749	0	3.42	3.97	-3.7	1.008	100	0	6.7	0	0	0	0	0	0	0	0	0	0	0	0;
	749	0	2.98	3.54	-3	1.008	100	0	5.6	0	0	0	0	0	0	0	0	0	0	0	0;
	750	5.08	-8.78	15	-15	1.002	100	1	26.6	0	0	0	0	0	0	0	0	0	0	0	0;
	751	1.88	2	2	-2	1.014	100	1	7	1	0	0	0	0	0	0	0	0	0	0	0;
	756	0	-0.31	3	-3	1.02	100	0	5	-5	0	0	0	0	0	0	0	0	0	0	0;
	763	0	0.84	8	-8	1.05	100	0	23.5	0	0	0	0	0	0	0	0	0	0	0	0;
	765	0	0	0	0	1.037	100	0	6	0	0	0	0	0	0	0	0	0	0	0	0;
	766	0	0	0	0	1.036	100	0	6	0	0	0	0	0	0	0	0	0	0	0	0;
	765	16.81	-6.42	10	-6.42	1.037	100	1	37.5	0	0	0	0	0	0	0	0	0	0	0	0;
	766	15.91	-4.04	10	-6	1.036	100	1	37.5	0	0	0	0	0	0	0	0	0	0	0	0;
	767	0	0.06	0.06	-0.06	0.586	100	0	0.6	0	0	0	0	0	0	0	0	0	0	0	0;
	767	0	1.89	2.61	-2.61	0.586	100	0	26.1	0	0	0	0	0	0	0	0	0	0	0	0;
	767	0	0.16	0.16	-0.16	0.586	100	0	1.6	0	0	0	0	0	0	0	0	0	0	0	0;
	767	0	0.11	0.11	-0.11	0.586	100	0	1.1	0	0	0	0	0	0	0	0	0	0	0	0;
	771	0	0	0	0	1.011	100	0	37.5	0	0	0	0	0	0	0	0	0	0	0	0;
	771	1.22	0	0	0	1.011	100	1	34	0	0	0	0	0	0	0	0	0	0	0	0;
	791	0	-0.47	26	-26	1.008	100	0	8	0	0	0	0	0	0	0	0	0	0	0	0;
	791	0	-0.47	26	-26	1.008	100	0	15	0	0	0	0	0	0	0	0	0	0	0	0;
	792	0	-0.47	26	-26	1.016	100	0	19	0	0	0	0	0	0	0	0	0	0	0	0;
	806	23.16	-7.34	15	-17	1.014	100	1	31	0	0	0	0	0	0	0	0	0	0	0	0;
	806	25.15	-7.34	15	-17	1.014	100	1	31	0	0	0	0	0	0	0	0	0	0	0	0;
	807	25.51	-5.14	15	-17	1.018	100	1	31	0	0	0	0	0	0	0	0	0	0	0	0;
	807	25.51	-5.14	15	-17	1.018	100	1	31	0	0	0	0	0	0	0	0	0	0	0	0;
	808	25.51	-6.15	15	-17	1.016	100	1	31	0	0	0	0	0	0	0	0	0	0	0	0;
	808	24.51	-6.15	15	-17	1.016	100	1	31	0	0	0	0	0	0	0	0	0	0	0	0;
	812	35.18	0	0	0	1.017	100	1	40.8	0	0	0	0	0	0	0	0	0	0	0	0;
	820	22.51	0.17	6	-9	1.022	100	1	32	1	0	0	0	0	0	0	0	0	0	0	0;
	820	0	0	6	-9	1.022	100	0	32	1	0	0	0	0	0	0	0	0	0	0	0;
	821	23.41	-0.47	6	-9	1.022	100	1	32	1	0	0	0	0	0	0	0	0	0	0	0;
	821	23.41	-0.47	6	-9	1.022	100	1	32	1	0	0	0	0	0	0	0	0	0	0	0;
	821	20.41	-0.47	6	-9	1.022	100	1	32	1	0	0	0	0	0	0	0	0	0	0	0;
	821	22.41	-0.47	6	-9	1.022	100	1	32	1	0	0	0	0	0	0	0	0	0	0	0;
	831	0	1.01	3	-3	1.044	100	0	13	0	0	0	0	0	0	0	0	0	0	0	0;
	831	0	3	3	-3	1.044	100	0	7	0	0	0	0	0	0	0	0	0	0	0	0;
	834	0	0	0	0	1.051	100	0	2.4	0	0	0	0	0	0	0	0	0	0	0	0;
	835	7.42	-0.3	10	-10	1.047	100	1	27	0	0	0	0	0	0	0	0	0	0	0	0;
	836	0	-0.46	10	-10	0.981	100	0	20	0	0	0	0	0	0	0	0	0	0	0	0;
	838	0	1.03	3.14	-3.43	1.077	100	0	9.8	0	0	0	0	0	0	0	0	0	0	0	0;
...
];

%% branch data
%	fbus	tbus	r	x	b	rateA	rateB	rateC	ratio	angle	status	angmin	angmax
mpc.branch = [
	4647	1	0.005726	0.010482	0	0	0	0	1	0	1	0	0;
	5244	1	0.01284	0.025679	0	0	0	0	1	0	1	0	0;
	1682	2	0.005799	0.010615	0.0075	0	0	0	1	0	1	0	0;
	1673	3	0.134039	0.309398	0.0035	0	0	0	1	0	1	0	0;
	2303	3	0.049131	0.133283	0.0015	0	0	0	1	0	1	0	0;
	700	4	0.025926	0.109136	0.0002	0	0	0	1	0	1	0	0;
	3939	4	0.05	0.126914	0.0006	0	0	0	1	0	1	0	0;
	5046	4	0.02321	0.097407	0.0016	0	0	0	1	0	1	0	0;
	4413	5	0.040564	0.113631	0.0013	0	0	0	1	0	1	0	0;
	2779	6	0.006047	0.020912	0.0222	0	0	0	1	0	1	0	0;
	2780	7	0.012472	0.032099	0.0061	0	0	0	1	0	1	0	0;
	2466	8	0.002607	0.017462	0.0324	540	540	540	1	0	1	0	0;
	470	9	0.053893	0.14258	0.0017	0	0	0	1	0	1	0	0;
	11	10	0.000247	0.001235	0.0005	0	0	0	1	0	1	0	0;
	11	10	0.000247	0.001235	0.0002	0	0	0	1	0	1	0	0;
	30	11	0.039753	0.100988	0.0047	0	0	0	1	0	1	0	0;
	2929	11	0.037654	0.096173	0.001	0	0	0	1	0	1	0	0;
	2181	12	0.014613	0.060721	0.0008	0	0	0	1	0	1	0	0;
	4017	12	0.034064	0.121139	0.0015	0	0	0	1	0	1	0	0;
	4019	12	0.000242	0.000442	0.0004	0	0	0	1	0	1	0	0;
	115	13	2.1e-05	0.000125	0.1386	737	737	737	1	0	1	0	0;
	2337	13	0.000145	0.001877	0.0635	2487	2487	2487	1	0	1	0	0;
	4577	13	0.000319	0.003234	0.0838	1841	1841	1841	1	0	1	0	0;
	116	13	2.1e-05	0.000125	0.1386	737	737	737	1	0	1	0	0;
	1225	14	0.04	0.134198	0.0274	0	0	0	1	0	1	0	0;
	2874	14	0.012222	0.052346	0.0026	0	0	0	1	0	1	0	0;
	4595	14	0.007284	0.045432	0.0024	0	0	0	1	0	1	0	0;
	4955	14	0.059963	0.154222	0.0236	0	0	0	1	0	1	0	0;
	5230	14	0.018025	0.110988	0.0073	0	0	0	1	0	1	0	0;
	2874	14	0.012222	0.052593	0.0032	0	0	0	1	0	1	0	0;
	4595	14	0.007284	0.044938	0.0024	0	0	0	1	0	1	0	0;
	2906	15	0.037541	0.100529	0.0011	0	0	0	1	0	1	0	0;
	4124	15	0.090199	0.211388	0.0023	0	0	0	1	0	1	0	0;
	4455	15	0.09801	0.267574	0	0	0	0	1	0	1	0	0;
	249	16	0.071806	0.191484	0.0019	0	0	0	1	0	1	0	0;
	337	16	0.119174	0.284958	0.0044	0	0	0	1	0	1	0	0;
	5834	17	0.022346	0.061111	0.0029	0	0	0	1	0	1	0	0;
	3727	18	0.009383	0.019753	0	0	0	0	1	0	1	0	0;
	5094	19	0.000252	0.000504	0	0	0	0	1	0	1	0	0;
	3727	20	0.001975	0.004444	0	0	0	0	1	0	1	0	0;
	1354	21	0.036296	0.099012	0.0045	0	0	0	1	0	1	0	0;
	1598	21	0.032716	0.089136	0.0057	0	0	0	1	0	1	0	0;
	1843	22	0.138574	0.351474	0.0058	0	0	0	1	0	1	0	0;
	5023	22	0.094407	0.210456	0.0044	0	0	0	1	0	1	0	0;
	1157	23	0.047115	0.117158	0.001	0	0	0	1	0	1	0	0;
	2703	23	0.039557	0.120937	0.0132	0	0	0	1	0	1	0	0;
	3425	23	0.022676	0.062484	0.0007	0	0	0	1	0	1	0	0;
	144	24	0.064568	0.16716	0.0113	0	0	0	1	0	1	0	0;
	1282	24	0.048605	0.128481	0.0062	0	0	0	1	0	1	0	0;
	490	25	0.004815	0.02963	0.0016	0	0	0	1	0	1	0	0;
	2093	25	0.007309	0.04463	0.0073	0	0	0	1	0	1	0	0;
	612	26	0.034321	0.145802	0.0073	0	0	0	1	0	1	0	0;
	1866	26	0.004815	0.009753	0.0005	0	0	0	1	0	1	0	0;
	2602	26	0.049012	0.133704	0.0063	0	0	0	1	0	1	0	0;
	2922	26	0.04642	0.126543	0.0058	0	0	0	1	0	1	0	0;
	3339	26	0.046296	0.125926	0.006	0	0	0	1	0	1	0	0;
	4632	26	0.053704	0.136753	0.0065	0	0	0	1	0	1	0	0;
	2922	26	0.03358	0.120988	0.0062	0	0	0	1	0	1	0	0;
	536	27	0.006163	0.041067	0.0759	446	446	446	1	0	1	0	0;
	2350	27	0.000652	0.004369	0.0081	558	558	558	1	0	1	0	0;
	2684	28	0.050945	0.131922	0.0015	0	0	0	1	0	1	0	0;
	3892	28	0.058781	0.149005	0.0017	0	0	0	1	0	1	0	0;
	2887	29	0.067019	0.137566	0.0037	0	0	0	1	0	1	0	0;
	3321	29	0.032754	0.088939	0.0039	0	0	0	1	0	1	0	0;
	3321	29	0.030184	0.080096	0.0053	0	0	0	1	0	1	0	0;
	144	30	0.066049	0.187778	0.0099	0	0	0	1	0	1	0	0;
	1553	30	0.065062	0.133704	0.0062	0	0	0	1	0	1	0	0;
	4841	30	0.041728	0.106049	0.005	0	0	0	1	0	1	0	0;
	150	31	0.009574	0.03875	0.0114	0	0	0	1	0	1	0	0;
	3162	31	0.000171	0.000313	0.0002	0	0	0	1	0	1	0	0;
	3692	31	0.034266	0.09423	0.001	0	0	0	1	0	1	0	0;
	4741	31	0.006803	0.028219	0	0	0	0	1	0	1	0	0;
	150	31	0.008566	0.037541	0.0121	0	0	0	1	0	1	0	0;
	3729	32	0.009733	0.034089	0.0185	0	0	0	1	0	1	0	0;
	366	34	0.000277	0.002015	0.003	288	288	288	1	0	1	0	0;
	1017	33	0.00881	0.033995	0.0607	289	289	289	1	0	1	0	0;
	1158	33	0.004642	0.019832	0.0354	255	255	255	1	0	1	0	0;
	2580	34	0.008861	0.03506	0.0623	288	288	288	1	0	1	0	0;
	2704	34	0.006993	0.032869	0.0557	255	255	255	1	0	1	0	0;
	4746	33	0.002173	0.008731	0.0152	0	0	0	1	0	1	0	0;
	4858	34	0.00077	0.003121	0.0051	0	0	0	1	0	1	0	0;
	5671	33	0.004109	0.016138	0.0284	288	288	288	1	0	1	0	0;
	368	35	8.3e-05	0.000907	0.0202	1034	1034	1034	1	0	1	0	0;
	1109	35	0.000552	0.006726	0.0939	1786	1786	1786	1	0	1	0	0;
	2150	35	0.000512	0.008012	0.2455	2462	2462	2462	1	0	1	0	0;
	3135	35	0.001107	0.00918	0.1906	1644	1644	1644	1	0	1	0	0;
	367	36	6.2e-05	0.000741	0.0173	1095	1095	1095	1	0	1	0	0;
	2150	35	0.000512	0.008019	0.2455	2462	2462	2462	1	0	1	0	0;
	2150	36	0.001153	0.013123	0.1841	1433	1433	1433	1	0	1	0	0;
	5229	37	0.055933	0.120685	0.0013	0	0	0	1	0	1	0	0;
	5515	37	0.039053	0.084404	0.001	0	0	0	1	0	1	0	0;
	730	38	0.00252	0.006551	0.0001	0	0	0	1	0	1	0	0;
	1229	39	0.009877	0.042222	0.0021	0	0	0	1	0	1	0	0;
	5809	39	0.024815	0.063086	0.0029	0	0	0	1	0	1	0	0;
	1229	39	0.009877	0.042222	0.0021	0	0	0	1	0	1	0	0;
	2251	40	0.056173	0.142593	0.0066	0	0	0	1	0	1	0	0;
	4595	40	0.034444	0.109012	0.0076	0	0	0	1	0	1	0	0;
	430	41	0.000158	0.000672	0.0719	331	331	331	1	0	1	0	0;
	3953	41	4.5e-05	8.9e-05	0.002	268	268	268	1	0	1	0	0;
	1484	42	0.01096	0.020063	0.009	0	0	0	1	0	1	0	0;
	2765	42	0.002268	0.008818	0.0099	0	0	0	1	0	1	0	0;
	2724	43	0.001481	0.006296	0.0039	0	0	0	1	0	1	0	0;
	3488	44	0.050617	0.137012	0.009	0	0	0	1	0	1	0	0;
	4322	44	0.074326	0.194507	0.0021	0	0	0	1	0	1	0	0;
	5097	45	0.000247	0.000741	0	0	0	0	1	0	1	0	0;
	1085	46	0.049131	0.134039	0.001	0	0	0	1	0	1	0	0;
	2194	46	0.033258	0.090955	0.001	0	0	0	1	0	1	0	0;
	3305	46	0.067437	0.123442	0.001	0	0	0	1	0	1	0	0;
	1085	47	0.037289	0.118166	0.001	0	0	0	1	0	1	0	0;
	5363	48	0.021358	0.057037	0.0005	0	0	0	1	0	1	0	0;
	1223	49	0.071303	0.180902	0.0021	0	0	0	1	0	1	0	0;
	2345	49	0.071554	0.18191	0.0021	0	0	0	1	0	1	0	0;
	470	50	0.028193	0.104535	0.0013	0	0	0	1	0	1	0	0;
	1676	50	0.055404	0.171429	0.01	0	0	0	1	0	1	0	0;
	3553	50	0.010834	0.071554	0.001	0	0	0	1	0	1	0	0;
	4629	50	0.013857	0.030234	0.0003	0	0	0	1	0	1	0	0;
	3553	50	0.011414	0.070648	0.0009	0	0	0	1	0	1	0	0;
	4629	50	0.013757	0.030108	0.0003	0	0	0	1	0	1	0	0;
	1196	51	0.00478	0.028622	0.0547	455	455	455	1	0	1	0	0;
	1197	51	0.00478	0.028583	0.0547	455	455	455	1	0	1	0	0;
	166	52	0.01284	0.032716	0.0015	0	0	0	1	0	1	0	0;
	5489	52	0.014198	0.036049	0.0016	0	0	0	1	0	1	0	0;
	3349	53	0.005291	0.021668	0.0003	0	0	0	1	0	1	0	0;
	2769	54	0.01358	0.047654	0.0023	0	0	0	1	0	1	0	0;
	373	55	0.000257	0.000514	0.0294	0	0	0	1	0	1	0	0;
	2693	56	0.000257	0.002153	0.2147	452	452	452	1	0	1	0	0;
	3427	56	0.000277	0.000869	0.0931	481	481	481	1	0	1	0	0;
	5098	57	0.000756	0.00252	0	0	0	0	1	0	1	0	0;
	3390	58	0.000237	0.00083	0.1863	268	268	268	1	0	1	0	0;
	3565	58	0.000178	0.000612	0.1377	268	268	268	1	0	1	0	0;
	142	59	0.030486	0.076342	0.002	0	0	0	1	0	1	0	0;
	1652	59	0.011086	0.024691	0.0015	0	0	0	1	0	1	0	0;
	2476	60	0.044344	0.170572	0.0021	0	0	0	1	0	1	0	0;
	3525	60	0.036709	0.151776	0.0017	0	0	0	1	0	1	0	0;
	2228	61	0.017788	0.048551	0.0006	0	0	0	1	0	1	0	0;
	2634	61	0.057521	0.145251	0.0017	0	0	0	1	0	1	0	0;
	2048	62	0.014109	0.057949	0.0029	0	0	0	1	0	1	0	0;
	2950	62	0.007055	0.02973	0.0014	0	0	0	1	0	1	0	0;
	371	63	0.024263	0.065911	0.0007	0	0	0	1	0	1	0	0;
	3081	63	0.020912	0.059209	0.0016	0	0	0	1	0	1	0	0;
	145	64	0.002568	0.011753	0.0203	424	424	424	1	0	1	0	0;
	5108	64	0.002568	0.011615	0.0228	290	290	290	1	0	1	0	0;
	4607	65	0.006299	0.033585	0.0599	0	0	0	1	0	1	0	0;
	4607	65	0.006299	0.033661	0.06	0	0	0	1	0	1	0	0;
	1546	66	0.102293	0.226757	0.0025	0	0	0	1	0	1	0	0;
	2292	66	0.177551	0.405291	0.0046	0	0	0	1	0	1	0	0;
	3249	66	0.088264	0.161566	0.0017	0	0	0	1	0	1	0	0;
	3030	67	0.007307	0.014613	0.0002	0	0	0	1	0	1	0	0;
	2883	68	0.067775	0.139834	0.001	0	0	0	1	0	1	0	0;
	4537	68	0.047367	0.16125	0.0021	0	0	0	1	0	1	0	0;
	5151	68	0.004031	0.016629	0.001	0	0	0	1	0	1	0	0;
	4610	69	0.073066	0.205089	0.0022	0	0	0	1	0	1	0	0;
	5099	70	4.8e-05	8.8e-05	0.0001	0	0	0	1	0	1	0	0;
	2165	71	0.000252	0.00252	0.0008	0	0	0	1	0	1	0	0;
	3145	71	0.030738	0.088687	0.0169	0	0	0	1	0	1	0	0;
	5100	71	0.006551	0.016377	0.0171	0	0	0	1	0	1	0	0;
	3145	71	0.025195	0.07483	0.0204	0	0	0	1	0	1	0	0;
	3746	72	9.9e-05	0.00077	0.078	379	379	379	1	0	1	0	0;
	3746	73	9.9e-05	0.00077	0.077	379	379	379	1	0	1	0	0;
	5108	74	0.000514	0.003437	0.0061	290	290	290	1	0	1	0	0;
	5128	74	0.005476	0.036879	0.1255	522	522	522	1	0	1	0	0;
	145	74	0.000514	0.003457	0.0061	418	418	418	1	0	1	0	0;
	4964	75	0.017531	0.046914	0.0023	0	0	0	1	0	1	0	0;
	2084	75	0.005309	0.014321	0.0006	0	0	0	1	0	1	0	0;
	3082	76	0.003477	0.01118	0.0187	304	304	304	1	0	1	0	0;
	3832	76	0.000612	0.003121	0.0152	270	270	270	1	0	1	0	0;
	2344	77	0.013857	0.035525	0.0004	0	0	0	1	0	1	0	0;
	240	78	0.002771	0.008314	0.0083	0	0	0	1	0	1	0	0;
	4562	78	0.000151	0.000302	0	0	0	0	1	0	1	0	0;
	630	79	0.010758	0.02187	0.0071	0	0	0	1	0	1	0	0;
	1871	79	0.003779	0.014613	0.0198	0	0	0	1	0	1	0	0;
	2410	79	0.008314	0.017057	0.024	0	0	0	1	0	1	0	0;
	4077	79	0.000252	0.001764	0.0043	0	0	0	1	0	1	0	0;
	630	79	0.010758	0.02187	0.0071	0	0	0	1	0	1	0	0;
	4076	79	0.000302	0.001562	0.0037	0	0	0	1	0	1	0	0;
	4078	81	2.4e-05	0.000144	0.0213	701	701	701	1	0	1	0	0;
	4078	80	7.1e-05	0.000162	0.0162	251	251	251	1	0	1	0	0;
	680	82	0.068027	0.173091	0.002	0	0	0	1	0	1	0	0;
	803	82	0.027211	0.068783	0.001	0	0	0	1	0	1	0	0;
	2073	82	0.03099	0.202822	0.002	0	0	0	1	0	1	0	0;
	3485	83	0.000257	0.001165	0.002	405	405	405	1	0	1	0	0;
	2129	84	0.045603	0.11741	0.001	0	0	0	1	0	1	0	0;
	3802	84	0.008566	0.024691	0	0	0	0	1	0	1	0	0;
	5103	85	0.047317	0.131595	0.0015	0	0	0	1	0	1	0	0;
	2809	86	0.040494	0.128889	0.0064	0	0	0	1	0	1	0	0;
	3511	86	0.037778	0.097037	0.0045	0	0	0	1	0	1	0	0;
	3771	87	0.032071	0.058705	0.0006	0	0	0	1	0	1	0	0;
	4346	87	0.062887	0.204157	0.002	0	0	0	1	0	1	0	0;
	3771	87	0.032026	0.058624	0.0006	0	0	0	1	0	1	0	0;
	1617	88	0.075838	0.224742	0.0027	0	0	0	1	0	1	0	0;
	1706	88	0.028471	0.089695	0.001	0	0	0	1	0	1	0	0;
	3642	88	0.080373	0.255732	0.003	0	0	0	1	0	1	0	0;
	5559	88	0.000252	0.000504	0	0	0	0	1	0	1	0	0;
	2496	89	0.033531	0.087235	0.0166	0	0	0	1	0	1	0	0;
	4226	89	0.03037	0.08321	0.0039	0	0	0	1	0	1	0	0;
	5104	90	0.000444	0.001136	0	0	0	0	1	0	1	0	0;
	3727	91	0.057284	0.130864	0	0	0	0	1	0	1	0	0;
	653	92	0.054749	0.157445	0.0027	0	0	0	1	0	1	0	0;
	4056	92	0.038549	0.103049	0.0012	0	0	0	1	0	1	0	0;
	5729	92	0.012598	0.052406	0.0006	0	0	0	1	0	1	0	0;
...
];

%%-----  OPF Data  -----%%
%% generator cost data
%	1	startup	shutdown	n	x1	y1	...	xn	yn
%	2	startup	shutdown	n	c(n-1)	...	c0
mpc.gencost = [
	2	0	0	3	0	2	0;
	2	0	0	3	0	2	0;
	2	0	0	3	0	2	0;
	2	0	0	3	0	1	0;
	2	0	0	3	0	2	0;
	2	0	0	3	0	2	0;
	2	0	0	3	0	2	0;
	2	0	0	3	0	2	0;
	2	0	0	3	0	2	0;
	2	0	0	3	0	2	0;
	2	0	0	3	0	1	0;
	2	0	0	3	0	2	0;
	2	0	0	3	0	2	0;
	2	0	0	3	0	1	0;
	2	0	0	3	0	1	0;
	2	0	0	3	0	2	0;
	2	0	0	3	0	2	0;
	2	0	0	3	0	1	0;
	2	0	0	3	0	2	0;
	2	0	0	3	0	2	0;
	2	0	0	3	0	2	0;
	2	0	0	3	0	2	0;
	2	0	0	3	0	2	0;
	2	0	0	3	0	2	0;
	2	0	0	3	0	1	0;
	2	0	0	3	0	1	0;
	2	0	0	3	0	2	0;
	2	0	0	3	0	1	0;
	2	0	0	3	0	1	0;
	2	0	0	3	0	1	0;
	2	0	0	3	0	2	0;
	2	0	0	3	0	2	0;
	2	0	0	3	0	2	0;
	2	0	0	3	0	2	0;
	2	0	0	3	0	1	0;
	2	0	0	3	0	2	0;
	2	0	0	3	0	1	0;
	2	0	0	3	0	1	0;
	2	0	0	3	0	2	0;
	2	0	0	3	0	2	0;
	2	0	0	3	0	2	0;
	2	0	0	3	0	2	0;
	2	0	0	3	0	1	0;
	2	0	0	3	0	1	0;
	2	0	0	3	0	1	0;
	2	0	0	3	0	2	0;
	2	0	0	3	0	2	0;
	2	0	0	3	0	2	0;
	2	0	0	3	0	2	0;
	2	0	0	3	0	2	0;
	2	0	0	3	0	2	0;
	2	0	0	3	0	1	0;
	2	0	0	3	0	2	0;
	2	0	0	3	0	2	0;
	2	0	0	3	0	2	0;
	2	0	0	3	0	2	0;
	2	0	0	3	0	1	0;
	2	0	0	3	0	1	0;
	2	0	0	3	0	1	0;
	2	0	0	3	0	2	0;
	2	0	0	3	0	2	0;
	2	0	0	3	0	2	0;
	2	0	0	3	0	2	0;
	2	0	0	3	0	1	0;
	2	0	0	3	0	2	0;
	2	0	0	3	0	1	0;
	2	0	0	3	0	1	0;
	2	0	0	3	0	2	0;
	2	0	0	3	0	2	0;
	2	0	0	3	0	2	0;
	2	0	0	3	0	2	0;
	2	0	0	3	0	2	0;
	2	0	0	3	0	2	0;
	2	0	0	3	0	1	0;
	2	0	0	3	0	2	0;
	2	0	0	3	0	2	0;
	2	0	0	3	0	2	0;
	2	0	0	3	0	2	0;
	2	0	0	3	0	2	0;
	2	0	0	3	0	2	0;
	2	0	0	3	0	2	0;
	2	0	0	3	0	1	0;
	2	0	0	3	0	2	0;
	2	0	0	3	0	2	0;
	2	0	0	3	0	2	0;
	2	0	0	3	0	2	0;
	2	0	0	3	0	2	0;
	2	0	0	3	0	2	0;
	2	0	0	3	0	1	0;
	2	0	0	3	0	2	0;
	2	0	0	3	0	2	0;
	2	0	0	3	0	1	0;
	2	0	0	3	0	1	0;
	2	0	0	3	0	2	0;
	2	0	0	3	0	2	0;
	2	0	0	3	0	2	0;
	2	0	0	3	0	2	0;
	2	0	0	3	0	2	0;
	2	0	0	3	0	2	0;
	2	0	0	3	0	2	0;
	2	0	0	3	0	2	0;
	2	0	0	3	0	2	0;
	2	0	0	3	0	2	0;
	2	0	0	3	0	1	0;
	2	0	0	3	0	1	0;
	2	0	0	3	0	1	0;
	2	0	0	3	0	2	0;
	2	0	0	3	0	1	0;
	2	0	0	3	0	2	0;
	2	0	0	3	0	2	0;
	2	0	0	3	0	2	0;
	2	0	0	3	0	2	0;
	2	0	0	3	0	2	0;
	2	0	0	3	0	1	0;
	2	0	0	3	0	2	0;
	2	0	0	3	0	2	0;
	2	0	0	3	0	2	0;
	2	0	0	3	0	2	0;
	2	0	0	3	0	2	0;
	2	0	0	3	0	1	0;
	2	0	0	3	0	2	0;
	2	0	0	3	0	2	0;
	2	0	0	3	0	2	0;
	2	0	0	3	0	2	0;
	2	0	0	3	0	2	0;
	2	0	0	3	0	2	0;
	2	0	0	3	0	1	0;
	2	0	0	3	0	2	0;
	2	0	0	3	0	2	0;
	2	0	0	3	0	1	0;
	2	0	0	3	0	1	0;
	2	0	0	3	0	2	0;
	2	0	0	3	0	2	0;
	2	0	0	3	0	1	0;
	2	0	0	3	0	2	0;
	2	0	0	3	0	2	0;
	2	0	0	3	0	2	0;
	2	0	0	3	0	2	0;
	2	0	0	3	0	1	0;
	2	0	0	3	0	1	0;
	2	0	0	3	0	2	0;
	2	0	0	3	0	1	0;
	2	0	0	3	0	2	0;
	2	0	0	3	0	2	0;
	2	0	0	3	0	2	0;
	2	0	0	3	0	1	0;
	2	0	0	3	0	1	0;
	2	0	0	3	0	1	0;
	2	0	0	3	0	1	0;
	2	0	0	3	0	1	0;
	2	0	0	3	0	1	0;
	2	0	0	3	0	2	0;
	2	0	0	3	0	2	0;
	2	0	0	3	0	1	0;
	2	0	0	3	0	2	0;
	2	0	0	3	0	2	0;
	2	0	0	3	0	1	0;
	2	0	0	3	0	1	0;
	2	0	0	3	0	1	0;
	2	0	0	3	0	2	0;
	2	0	0	3	0	2	0;
	2	0	0	3	0	2	0;
	2	0	0	3	0	2	0;
	2	0	0	3	0	2	0;
	2	0	0	3	0	1	0;
	2	0	0	3	0	1	0;
	2	0	0	3	0	2	0;
	2	0	0	3	0	2	0;
	2	0	0	3	0	2	0;
	2	0	0	3	0	2	0;
	2	0	0	3	0	1	0;
	2	0	0	3	0	1	0;
	2	0	0	3	0	2	0;
	2	0	0	3	0	2	0;
	2	0	0	3	0	2	0;
	2	0	0	3	0	2	0;
	2	0	0	3	0	2	0;
	2	0	0	3	0	1	0;
	2	0	0	3	0	2	0;
	2	0	0	3	0	2	0;
	2	0	0	3	0	2	0;
	2	0	0	3	0	1	0;
	2	0	0	3	0	1	0;
	2	0	0	3	0	1	0;
	2	0	0	3	0	1	0;
	2	0	0	3	0	1	0;
	2	0	0	3	0	1	0;
	2	0	0	3	0	1	0;
	2	0	0	3	0	1	0;
	2	0	0	3	0	2	0;
	2	0	0	3	0	1	0;
	2	0	0	3	0	1	0;
	2	0	0	3	0	1	0;
	2	0	0	3	0	1	0;
	2	0	0	3	0	2	0;
	2	0	0	3	0	2	0;
	2	0	0	3	0	2	0;
	2	0	0	3	0	1	0;
	2	0	0	3	0	2	0;
	2	0	0	3	0	2	0;
...
];
